12

Y 0.000000 -0.291047 1.119694 0.197911
Y 0.000000 0.291047 1.225090 0.105500
X -0.291047 -0.006537 -0.000410 -0.303411
X 0.291047 -0.006537 -0.000410 -0.303411
Y 0.000000 1.011003 -0.562268 0.197911
Y 0.000000 1.258872 -0.025143 0.105500
Y 1.115166 0.000000 2.777799 0.197911
Y 0.915382 0.000000 3.334601 0.105500
X 0.002914 -0.291047 2.464134 -0.303411
X 0.002914 0.291047 2.464134 -0.303411
Y -1.115166 0.000000 2.777799 0.197911
Y -0.915382 0.000000 3.334601 0.105500
