ile-e199d44c-e03e-4ffd-8540-5d056b7bfba3-end.pdb
 OpenBabel12122316093D

 31 30  0  0  1  0  0  0  0  0999 V2000
    3.0960   -0.4710    0.7550 C   0  0  0  0  0  0  0  0  0  0  0  0
    2.4180   -1.2160    0.3390 H   0  0  0  0  0  0  0  0  0  0  0  0
    3.4230   -0.7590    1.7680 H   0  0  0  0  0  0  0  0  0  0  0  0
    3.9840   -0.3270    0.0590 H   0  0  0  0  0  0  0  0  0  0  0  0
    2.3490    0.8800    0.8610 C   0  0  1  0  0  0  0  0  0  0  0  0
    2.6040    1.4890   -0.4230 O   0  0  0  0  0  0  0  0  0  0  0  0
    0.9060    0.7040    1.0030 N   0  0  0  0  0  0  0  0  0  0  0  0
    0.8520   -0.1630    1.6490 H   0  0  0  0  0  0  0  0  0  0  0  0
    0.2790    0.2900   -0.2530 C   0  0  1  0  0  0  0  0  0  0  0  0
    0.9600    0.2720   -1.0470 H   0  0  0  0  0  0  0  0  0  0  0  0
   -0.6510   -0.8790   -0.0240 C   0  0  1  0  0  0  0  0  0  0  0  0
   -1.6120   -0.4300    0.5040 H   0  0  0  0  0  0  0  0  0  0  0  0
   -1.2410   -1.3400   -1.3260 C   0  0  0  0  0  0  0  0  0  0  0  0
   -2.3670   -1.3510   -1.3310 H   0  0  0  0  0  0  0  0  0  0  0  0
   -0.8720   -2.3450   -1.6020 H   0  0  0  0  0  0  0  0  0  0  0  0
   -0.9450   -0.6190   -2.1260 H   0  0  0  0  0  0  0  0  0  0  0  0
   -0.2490   -1.9300    0.9490 C   0  0  0  0  0  0  0  0  0  0  0  0
   -0.2840   -1.5680    2.0030 H   0  0  0  0  0  0  0  0  0  0  0  0
    0.6260   -2.5180    0.6780 H   0  0  0  0  0  0  0  0  0  0  0  0
   -1.3780   -3.0140    0.9780 C   0  0  0  0  0  0  0  0  0  0  0  0
   -2.2810   -2.6510    1.4330 H   0  0  0  0  0  0  0  0  0  0  0  0
   -0.9760   -3.8460    1.6130 H   0  0  0  0  0  0  0  0  0  0  0  0
   -1.5230   -3.4120   -0.0240 H   0  0  0  0  0  0  0  0  0  0  0  0
   -0.7240    1.4450   -0.5320 C   0  0  0  0  0  0  0  0  0  0  0  0
   -1.9210    1.1990   -0.5690 O   0  0  0  0  0  0  0  0  0  0  0  0
   -0.2600    2.7850   -0.7230 N   0  0  0  0  0  0  0  0  0  0  0  0
    0.7530    2.9750   -0.6590 H   0  0  0  0  0  0  0  0  0  0  0  0
   -1.1180    3.9430   -0.9790 C   0  0  0  0  0  0  0  0  0  0  0  0
   -0.7090    4.5370   -1.8160 H   0  0  0  0  0  0  0  0  0  0  0  0
   -2.1540    3.7610   -1.1200 H   0  0  0  0  0  0  0  0  0  0  0  0
   -0.9860    4.5610   -0.0380 H   0  0  0  0  0  0  0  0  0  0  0  0
  1  2  1  0  0  0  0
  1  3  1  0  0  0  0
  1  4  1  0  0  0  0
  1  5  1  0  0  0  0
  5  6  1  6  0  0  0
  5  7  1  0  0  0  0
  7  8  1  0  0  0  0
  7  9  1  0  0  0  0
  9 10  1  6  0  0  0
  9 11  1  0  0  0  0
  9 24  1  0  0  0  0
 11 12  1  1  0  0  0
 11 13  1  0  0  0  0
 11 17  1  0  0  0  0
 13 14  1  0  0  0  0
 13 15  1  0  0  0  0
 13 16  1  0  0  0  0
 17 18  1  0  0  0  0
 17 19  1  0  0  0  0
 17 20  1  0  0  0  0
 20 21  1  0  0  0  0
 20 22  1  0  0  0  0
 20 23  1  0  0  0  0
 24 25  2  0  0  0  0
 24 26  1  0  0  0  0
 26 27  1  0  0  0  0
 26 28  1  0  0  0  0
 28 29  1  0  0  0  0
 28 30  1  0  0  0  0
 28 31  1  0  0  0  0
M  END
$$$$
