56

Y -1.333881 -0.788329 1.135120 0.599672
X -1.342083 -0.809439 1.163610 -0.588962
Y -2.041371 0.013727 0.272880 0.110156
X -1.934308 -0.056149 0.272660 -0.103365
Y -1.149538 0.777285 -0.271627 0.098459
X -1.226422 0.690586 -0.165902 -0.106917
Y 1.832859 1.010686 -1.309082 0.599672
X 1.828678 1.030385 -1.339398 -0.588962
Y 0.995989 0.522237 -0.330798 0.110156
X 1.117717 0.559388 -0.342929 -0.103365
Y 1.698537 -0.415438 0.261862 0.098459
X 1.639575 -0.321371 0.151044 -0.106917
Y 2.536381 -1.064713 0.069885 0.138296
X 2.663265 -1.165285 -0.043595 -0.104518
X -3.454508 -0.499656 -0.000823 -0.160994
Y -3.396876 -0.489166 -0.066874 0.193285
Y -0.179388 1.447358 -0.098362 0.229715
X -0.181170 1.415136 -0.082847 -0.207743
X -3.355000 -1.459000 -0.451000 -0.010613
X -3.766000 0.168000 -0.812000 -0.010613
X -4.093000 -0.421000 0.883000 -0.010613
X -1.830000 1.315000 -1.168000 -0.010613
X -0.049000 1.568000 1.008000 -0.010613
X -0.136000 2.401000 -0.565000 -0.010613
X 0.845000 -0.693000 1.091000 -0.010613
X 2.732000 -1.961000 0.691000 -0.010613
X 2.717000 -1.450000 -0.969000 -0.010613
X 3.503000 -0.428000 0.080000 -0.010613
Y -2.327234 1.028880 -1.530343 0.599672
X -2.348523 1.032208 -1.559674 -0.588962
Y -2.293061 0.219583 -0.458399 0.110156
X -2.259001 0.338760 -0.489736 -0.103365
Y -1.087294 0.381227 -0.012754 0.098459
X -1.208702 0.367690 -0.111153 -0.106917
Y 1.082542 -0.572481 1.397160 0.599672
X 1.058759 -0.574108 1.424662 -0.588962
Y 1.228936 0.192238 0.297878 0.110156
X 1.257135 0.073745 0.336729 -0.103365
Y 2.473351 -0.016310 -0.037279 0.098459
X 2.344250 0.004258 0.049413 -0.106917
Y 3.461761 -0.465268 0.244773 0.138296
X 3.599140 -0.521998 0.375161 -0.104518
X -3.633704 -0.418411 -0.052236 -0.160994
Y -3.589797 -0.366940 0.004484 0.193285
Y 0.013643 0.858500 -0.230363 0.229715
X 0.044897 0.868952 -0.244370 -0.207743
X -3.957000 0.117000 0.840000 -0.010613
X -3.227000 -1.445000 0.280000 -0.010613
X -4.296000 -0.496000 -0.826000 -0.010613
X -1.171000 -0.357000 0.974000 -0.010613
X 0.026000 1.844000 0.099000 -0.010613
X 0.140000 0.736000 -1.335000 -0.010613
X 2.481000 0.683000 -1.054000 -0.010613
X 3.337000 -1.638000 0.310000 -0.010613
X 4.415000 -0.326000 -0.299000 -0.010613
X 3.720000 -0.224000 1.363000 -0.010613
