16

Y -2.424000 0.995000 -1.566000 0.418925
Y -2.424000 0.995000 -1.566000 0.418901
Y -1.216000 0.198000 0.146000 0.174931
Y -1.216000 0.198000 0.146000 0.174918
Y 0.984000 -0.535000 1.423000 0.348752
Y 0.984000 -0.535000 1.423000 0.348745
Y 2.364000 0.163000 -0.214000 0.450992
Y 2.364000 0.163000 -0.214000 0.450921
Y -3.957000 0.117000 0.840000 0.127137
Y -3.227000 -1.445000 0.280000 0.149044
Y -4.296000 -0.496000 -0.826000 0.104328
Y 0.026000 1.844000 0.099000 0.253022
Y 0.140000 0.736000 -1.335000 0.220878
Y 3.337000 -1.638000 0.310000 0.274417
Y 4.415000 -0.326000 -0.299000 0.220472
Y 3.720000 -0.224000 1.363000 1.993574
