28

Y -2.424000 0.995000 -1.566000 0.109446
Y -2.424000 0.995000 -1.566000 0.584799
X -2.351000 0.318000 -0.549000 -0.739145
Y -2.351000 0.318000 -0.549000 0.018194
X -1.216000 0.198000 0.146000 -0.068893
Y -1.216000 0.198000 0.146000 0.156852
Y 0.984000 -0.535000 1.423000 0.109446
Y 0.984000 -0.535000 1.423000 0.584799
X 1.161000 0.099000 0.387000 -0.739145
Y 1.161000 0.099000 0.387000 0.018194
X 2.364000 0.163000 -0.214000 -0.068893
Y 2.364000 0.163000 -0.214000 0.156852
Y 3.512000 -0.537000 0.314000 0.790855
X 3.512000 -0.537000 0.314000 -1.139167
Y -3.524000 -0.421000 -0.030000 0.300353
X -3.524000 -0.421000 -0.030000 -0.449219
Y 0.026000 0.827000 -0.264000 0.401938
X 0.026000 0.827000 -0.264000 -0.610494
Y -3.957000 0.117000 0.840000 0.058323
Y -3.227000 -1.445000 0.280000 0.058323
Y -4.296000 -0.496000 -0.826000 0.058323
Y -1.171000 -0.357000 0.974000 0.058323
Y 0.026000 1.844000 0.099000 0.058323
Y 0.140000 0.736000 -1.335000 0.058323
Y 2.481000 0.683000 -1.054000 0.058323
Y 3.337000 -1.638000 0.310000 0.058323
Y 4.415000 -0.326000 -0.299000 0.058323
Y 3.720000 -0.224000 1.363000 0.058323
